43
Energy =
Al    7.9290040    1.9942374   15.5300554 
O     9.5380511    1.4609326   16.3833133 
O     8.0493840    3.7327013   16.2816194 
C    10.3087298    2.1520927   17.1348843 
C    10.0754306    3.4888922   17.4898790 
C     8.9563757    4.2094908   17.0475598 
C    11.5319415    1.4334917   17.6465520 
C     8.7601180    5.6433463   17.4717135 
H    10.7896622    3.9858421   18.1359106 
H    12.1571459    2.0745669   18.2717174 
H    12.1175340    1.0687922   16.7956187 
H    11.2172901    0.5563365   18.2225455 
H     7.7961103    5.7386103   17.9832894 
H     8.7171483    6.2779497   16.5797564 
H     9.5583490    5.9932608   18.1298056 
O     6.9627379    1.3906397   17.0455290 
O     6.3303187    2.5213931   14.6575720 
C     5.7028385    1.4456164   17.2610870 
C     4.7673817    1.9567789   16.3496715 
C     5.1285605    2.4630458   15.0925218 
C     5.2488051    0.9113747   18.5962257 
C     4.0716149    2.9846470   14.1518217 
H     3.7194983    1.9546113   16.6261418 
H     4.1664881    0.9821532   18.7238713 
H     5.7482277    1.4699652   19.3954574 
H     5.5606555   -0.1346559   18.6889708 
H     4.1238110    2.4297713   13.2087122 
H     4.2836247    4.0345333   13.9216774 
H     3.0664678    2.8990441   14.5702048 
O     7.7854351    0.2567323   14.7860136 
O     8.9141071    2.6101546   14.0315527 
C     8.2575507   -0.1786201   13.6795552 
C     8.9954263    0.5996294   12.7756113 
C     9.2851429    1.9538360   12.9977813 
C     7.9723710   -1.6283631   13.3780051 
C    10.0812405    2.7360774   11.9836901 
H     9.3539106    0.1355267   11.8642501 
H     8.3891292   -2.2491372   14.1787291 
H     8.3903211   -1.9417649   12.4189495 
H     6.8887455   -1.7888253   13.3748783 
H    10.3734984    2.1253666   11.1267899 
H    10.9771982    3.1424849   12.4656220 
H     9.4845325    3.5877859   11.6393383 
